

  -INDIGO-08031710012D

 20 21  0  0  0  0  0  0  0  0999 V2000
    2.6250   -4.5466    0.0000 C   0  0  0  0  0  0  0  0  0  0  0  0
    3.3750   -3.2476    0.0000 C   0  0  0  0  0  0  0  0  0  0  0  0
    2.6250   -1.9486    0.0000 C   0  0  0  0  0  0  0  0  0  0  0  0
    3.3750   -0.6495    0.0000 C   0  0  0  0  0  0  0  0  0  0  0  0
    2.6250    0.6495    0.0000 C   0  0  0  0  0  0  0  0  0  0  0  0
    3.3750    1.9486    0.0000 C   0  0  0  0  0  0  0  0  0  0  0  0
    4.8750   -0.6495    0.0000 C   0  0  0  0  0  0  0  0  0  0  0  0
    5.6250   -1.9486    0.0000 C   0  0  0  0  0  0  0  0  0  0  0  0
    7.1250   -1.9486    0.0000 C   0  0  0  0  0  0  0  0  0  0  0  0
    7.8750   -0.6495    0.0000 C   0  0  0  0  0  0  0  0  0  0  0  0
    9.3750   -0.6495    0.0000 O   0  0  0  0  0  0  0  0  0  0  0  0
    7.1250    0.6495    0.0000 C   0  0  0  0  0  0  0  0  0  0  0  0
    5.6250    0.6495    0.0000 C   0  0  0  0  0  0  0  0  0  0  0  0
    1.1250   -1.9486    0.0000 C   0  0  0  0  0  0  0  0  0  0  0  0
    0.3750   -3.2476    0.0000 C   0  0  0  0  0  0  0  0  0  0  0  0
   -1.1250   -3.2476    0.0000 C   0  0  0  0  0  0  0  0  0  0  0  0
   -1.8750   -1.9486    0.0000 C   0  0  0  0  0  0  0  0  0  0  0  0
   -3.3750   -1.9486    0.0000 O   0  0  0  0  0  0  0  0  0  0  0  0
   -1.1250   -0.6495    0.0000 C   0  0  0  0  0  0  0  0  0  0  0  0
    0.3750   -0.6495    0.0000 C   0  0  0  0  0  0  0  0  0  0  0  0
  1  2  1  0  0  0  0
  2  3  1  0  0  0  0
  3  4  2  0  0  0  0
  3 14  1  0  0  0  0
  4  5  1  0  0  0  0
  4  7  1  0  0  0  0
  5  6  1  0  0  0  0
  8  7  2  0  0  0  0
  7 13  1  0  0  0  0
  9  8  1  0  0  0  0
 10  9  2  0  0  0  0
 10 11  1  0  0  0  0
 12 10  1  0  0  0  0
 13 12  2  0  0  0  0
 15 14  2  0  0  0  0
 14 20  1  0  0  0  0
 16 15  1  0  0  0  0
 17 16  2  0  0  0  0
 17 18  1  0  0  0  0
 19 17  1  0  0  0  0
 20 19  2  0  0  0  0
M  END
> <Inchi_key>
RGLYKWWBQGJZGM-ISLYRVAYSA-N

> <Source>
Mulliner

> <ID>
HT0657

> <H_MFHB>
1

> <CAS>
56-53-1

> <Cholestasis>


> <Name>
diethylstilbestrol;diethylstilbestrol diphosphate

> <Class>
1


$$$$