
  -INDIGO-08031710012D

 27 30  0  0  0  0  0  0  0  0999 V2000
   -0.8889    1.5396    0.0000 C   0  0  0  0  0  0  0  0  0  0  0  0
   -0.1388    2.8386    0.0000 C   0  0  0  0  0  0  0  0  0  0  0  0
    1.3611    2.8386    0.0000 S   0  0  0  0  0  0  0  0  0  0  0  0
    2.1111    4.1377    0.0000 C   0  0  0  0  0  0  0  0  0  0  0  0
    1.3611    5.4366    0.0000 C   0  0  0  0  0  0  0  0  0  0  0  0
    2.1111    6.7359    0.0000 C   0  0  0  0  0  0  0  0  0  0  0  0
    3.6110    6.7359    0.0000 C   0  0  0  0  0  0  0  0  0  0  0  0
    4.3611    8.0348    0.0000 S   0  0  0  0  0  0  0  0  0  0  0  0
    5.8610    8.0348    0.0000 C   0  0  0  0  0  0  0  0  0  0  0  0
    6.6111    9.3338    0.0000 C   0  0  0  0  0  0  0  0  0  0  0  0
    8.1112    9.3338    0.0000 C   0  0  0  0  0  0  0  0  0  0  0  0
    8.8610    8.0348    0.0000 C   0  0  0  0  0  0  0  0  0  0  0  0
    8.1112    6.7359    0.0000 C   0  0  0  0  0  0  0  0  0  0  0  0
    6.6111    6.7359    0.0000 C   0  0  0  0  0  0  0  0  0  0  0  0
    5.8610    5.4366    0.0000 N   0  0  0  0  0  0  0  0  0  0  0  0
    6.6111    4.1377    0.0000 C   0  0  0  0  0  0  0  0  0  0  0  0
    8.1112    4.1377    0.0000 C   0  0  0  0  0  0  0  0  0  0  0  0
    8.8610    2.8386    0.0000 C   0  0  0  0  0  0  0  0  0  0  0  0
   10.3612    2.8386    0.0000 N   0  0  0  0  0  0  0  0  0  0  0  0
   11.1110    1.5396    0.0000 C   0  0  0  0  0  0  0  0  0  0  0  0
   12.6111    1.5396    0.0000 C   0  0  0  0  0  0  0  0  0  0  0  0
   13.3612    2.8386    0.0000 N   0  0  0  0  0  0  0  0  0  0  0  0
   14.8611    2.8386    0.0000 C   0  0  0  0  0  0  0  0  0  0  0  0
   12.6111    4.1377    0.0000 C   0  0  0  0  0  0  0  0  0  0  0  0
   11.1110    4.1377    0.0000 C   0  0  0  0  0  0  0  0  0  0  0  0
    4.3611    5.4366    0.0000 C   0  0  0  0  0  0  0  0  0  0  0  0
    3.6110    4.1377    0.0000 C   0  0  0  0  0  0  0  0  0  0  0  0
  1  2  1  0  0  0  0
  2  3  1  0  0  0  0
  3  4  1  0  0  0  0
  5  4  2  0  0  0  0
  4 27  1  0  0  0  0
  6  5  1  0  0  0  0
  7  6  2  0  0  0  0
  8  7  1  0  0  0  0
  7 26  1  0  0  0  0
  9  8  1  0  0  0  0
 10  9  2  0  0  0  0
  9 14  1  0  0  0  0
 11 10  1  0  0  0  0
 12 11  2  0  0  0  0
 13 12  1  0  0  0  0
 14 13  2  0  0  0  0
 15 14  1  0  0  0  0
 15 16  1  0  0  0  0
 26 15  1  0  0  0  0
 16 17  1  0  0  0  0
 17 18  1  0  0  0  0
 18 19  1  0  0  0  0
 20 19  1  0  0  0  0
 19 25  1  0  0  0  0
 21 20  1  0  0  0  0
 22 21  1  0  0  0  0
 22 23  1  0  0  0  0
 24 22  1  0  0  0  0
 25 24  1  0  0  0  0
 27 26  2  0  0  0  0
M  END
> <Inchi_key>
XCTYLCDETUVOIP-UHFFFAOYSA-N

> <Source>
Mulliner

> <ID>
HT2040

> <H_MFHB>
1

> <CAS>


> <Cholestasis>


> <Name>
thiethylperazine maleate;thiethylperazine

> <Class>
1

$$$$