

  -INDIGO-08031710012D

 38 41  0  0  0  0  0  0  0  0999 V2000
   29.3355   10.1894    0.0000 C   0  0  0  0  0  0  0  0  0  0  0  0
   28.0366   10.9394    0.0000 C   0  0  0  0  0  0  0  0  0  0  0  0
   26.7373   10.1894    0.0000 C   0  0  0  0  0  0  0  0  0  0  0  0
   25.4384   10.9394    0.0000 C   0  0  0  0  0  0  0  0  0  0  0  0
   24.1391   10.1894    0.0000 C   0  0  0  0  0  0  0  0  0  0  0  0
   22.8402   10.9394    0.0000 C   0  0  0  0  0  0  0  0  0  0  0  0
   21.5413   10.1894    0.0000 C   0  0  0  0  0  0  0  0  0  0  0  0
   21.5413    8.6895    0.0000 O   0  0  0  0  0  0  0  0  0  0  0  0
   20.2420   10.9394    0.0000 O   0  0  0  0  0  0  0  0  0  0  0  0
   18.9431   10.1894    0.0000 C   0  0  0  0  0  0  0  0  0  0  0  0
   17.6442   10.9394    0.0000 C   0  0  0  0  0  0  0  0  0  0  0  0
   16.3449   10.1894    0.0000 N   0  0  0  0  0  0  0  0  0  0  0  0
   16.3449    8.6895    0.0000 C   0  0  0  0  0  0  0  0  0  0  0  0
   15.0460    7.9395    0.0000 C   0  0  0  0  0  0  0  0  0  0  0  0
   13.7471    8.6895    0.0000 N   0  0  0  0  0  0  0  0  0  0  0  0
   12.4478    7.9395    0.0000 C   0  0  0  0  0  0  0  0  0  0  0  0
   11.1489    8.6895    0.0000 C   0  0  0  0  0  0  0  0  0  0  0  0
    9.8500    7.9395    0.0000 C   0  0  0  0  0  0  0  0  0  0  0  0
    8.5507    8.6895    0.0000 N   0  0  0  0  0  0  0  0  0  0  0  0
    8.5507   10.1894    0.0000 C   0  0  0  0  0  0  0  0  0  0  0  0
    9.8500   10.9394    0.0000 C   0  0  0  0  0  0  0  0  0  0  0  0
    9.8500   12.4394    0.0000 C   0  0  0  0  0  0  0  0  0  0  0  0
    8.5507   13.1894    0.0000 C   0  0  0  0  0  0  0  0  0  0  0  0
    7.2518   12.4394    0.0000 C   0  0  0  0  0  0  0  0  0  0  0  0
    7.2518   10.9394    0.0000 C   0  0  0  0  0  0  0  0  0  0  0  0
    5.9529   10.1894    0.0000 S   0  0  0  0  0  0  0  0  0  0  0  0
    5.9529    8.6895    0.0000 C   0  0  0  0  0  0  0  0  0  0  0  0
    4.6537    7.9395    0.0000 C   0  0  0  0  0  0  0  0  0  0  0  0
    4.6537    6.4393    0.0000 C   0  0  0  0  0  0  0  0  0  0  0  0
    5.9529    5.6894    0.0000 C   0  0  0  0  0  0  0  0  0  0  0  0
    7.2518    6.4393    0.0000 C   0  0  0  0  0  0  0  0  0  0  0  0
    7.2518    7.9395    0.0000 C   0  0  0  0  0  0  0  0  0  0  0  0
    5.9529    4.1894    0.0000 C   0  0  0  0  0  0  0  0  0  0  0  0
    5.9529    2.6894    0.0000 F   0  0  0  0  0  0  0  0  0  0  0  0
    7.4527    4.1894    0.0000 F   0  0  0  0  0  0  0  0  0  0  0  0
    4.4528    4.1894    0.0000 F   0  0  0  0  0  0  0  0  0  0  0  0
   13.7471   10.1894    0.0000 C   0  0  0  0  0  0  0  0  0  0  0  0
   15.0460   10.9394    0.0000 C   0  0  0  0  0  0  0  0  0  0  0  0
  1  2  1  0  0  0  0
  2  3  1  0  0  0  0
  3  4  1  0  0  0  0
  4  5  1  0  0  0  0
  5  6  1  0  0  0  0
  6  7  1  0  0  0  0
  7  8  2  0  0  0  0
  7  9  1  0  0  0  0
  9 10  1  0  0  0  0
 10 11  1  0  0  0  0
 11 12  1  0  0  0  0
 13 12  1  0  0  0  0
 12 38  1  0  0  0  0
 14 13  1  0  0  0  0
 15 14  1  0  0  0  0
 15 16  1  0  0  0  0
 37 15  1  0  0  0  0
 16 17  1  0  0  0  0
 17 18  1  0  0  0  0
 18 19  1  0  0  0  0
 20 19  1  0  0  0  0
 19 32  1  0  0  0  0
 21 20  2  0  0  0  0
 20 25  1  0  0  0  0
 22 21  1  0  0  0  0
 23 22  2  0  0  0  0
 24 23  1  0  0  0  0
 25 24  2  0  0  0  0
 26 25  1  0  0  0  0
 27 26  1  0  0  0  0
 28 27  2  0  0  0  0
 27 32  1  0  0  0  0
 29 28  1  0  0  0  0
 30 29  2  0  0  0  0
 31 30  1  0  0  0  0
 30 33  1  0  0  0  0
 32 31  2  0  0  0  0
 33 34  1  0  0  0  0
 33 35  1  0  0  0  0
 33 36  1  0  0  0  0
 38 37  1  0  0  0  0
M  END
> <Inchi_key>
LRWSFOSWNAQHHW-UHFFFAOYSA-N

> <Source>
Mulliner

> <ID>
HT0914

> <H_MFHB>
1

> <CAS>
2746-81-8

> <Cholestasis>


> <Name>
fluphenazine enanthate

> <Class>
1


$$$$