
  -INDIGO-08031710012D

 18 19  0  0  0  0  0  0  0  0999 V2000
    6.2138    0.3181    0.0000 C   0  0  0  0  0  0  0  0  0  0  0  0
    6.2138    1.8181    0.0000 C   0  0  0  0  0  0  0  0  0  0  0  0
    7.5127    2.5681    0.0000 C   0  0  0  0  0  0  0  0  0  0  0  0
    7.5127    4.0681    0.0000 O   0  0  0  0  0  0  0  0  0  0  0  0
    8.8117    1.8181    0.0000 O   0  0  0  0  0  0  0  0  0  0  0  0
    4.9146    2.5681    0.0000 C   0  0  0  0  0  0  0  0  0  0  0  0
    3.6157    1.8181    0.0000 C   0  0  0  0  0  0  0  0  0  0  0  0
    2.3165    2.5681    0.0000 C   0  0  0  0  0  0  0  0  0  0  0  0
    2.3165    4.0681    0.0000 C   0  0  0  0  0  0  0  0  0  0  0  0
    3.6157    4.8181    0.0000 C   0  0  0  0  0  0  0  0  0  0  0  0
    4.9146    4.0681    0.0000 C   0  0  0  0  0  0  0  0  0  0  0  0
    1.0176    4.8181    0.0000 C   0  0  0  0  0  0  0  0  0  0  0  0
    1.0176    6.3181    0.0000 O   0  0  0  0  0  0  0  0  0  0  0  0
   -0.2815    4.0681    0.0000 C   0  0  0  0  0  0  0  0  0  0  0  0
   -0.4383    2.5763    0.0000 C   0  0  0  0  0  0  0  0  0  0  0  0
   -1.9056    2.2644    0.0000 C   0  0  0  0  0  0  0  0  0  0  0  0
   -2.6556    3.5635    0.0000 C   0  0  0  0  0  0  0  0  0  0  0  0
   -1.6519    4.6782    0.0000 S   0  0  0  0  0  0  0  0  0  0  0  0
  1  2  1  0  0  0  0
  2  3  1  0  0  0  0
  2  6  1  0  0  0  0
  3  4  2  0  0  0  0
  3  5  1  0  0  0  0
  7  6  2  0  0  0  0
  6 11  1  0  0  0  0
  8  7  1  0  0  0  0
  9  8  2  0  0  0  0
 10  9  1  0  0  0  0
  9 12  1  0  0  0  0
 11 10  2  0  0  0  0
 12 13  2  0  0  0  0
 12 14  1  0  0  0  0
 15 14  2  0  0  0  0
 14 18  1  0  0  0  0
 16 15  1  0  0  0  0
 17 16  2  0  0  0  0
 18 17  1  0  0  0  0
M  END
> <Inchi_key>
MDKGKXOCJGEUJW-UHFFFAOYSA-N

> <Source>
Mulliner , Kotsampasakou

> <ID>
EK0499;HT1967

> <H_MFHB>
0

> <CAS>


> <Cholestasis>
0

> <Name>
suprofen

> <Class>
0

$$$$