
  -INDIGO-08031710012D

 14 14  0  0  0  0  0  0  0  0999 V2000
    7.0512    2.0749    0.0000 C   0  0  0  0  0  0  0  0  0  0  0  0
    5.7522    1.3249    0.0000 C   0  0  0  0  0  0  0  0  0  0  0  0
    5.7522   -0.1751    0.0000 N   0  0  0  0  0  0  0  0  0  0  0  0
    7.0512   -0.9251    0.0000 C   0  0  0  0  0  0  0  0  0  0  0  0
    8.3502   -0.1751    0.0000 C   0  0  0  0  0  0  0  0  0  0  0  0
    4.4531   -0.9251    0.0000 C   0  0  0  0  0  0  0  0  0  0  0  0
    4.4531   -2.4251    0.0000 O   0  0  0  0  0  0  0  0  0  0  0  0
    3.1541   -0.1751    0.0000 C   0  0  0  0  0  0  0  0  0  0  0  0
    3.1541    1.3249    0.0000 C   0  0  0  0  0  0  0  0  0  0  0  0
    1.8549    2.0749    0.0000 C   0  0  0  0  0  0  0  0  0  0  0  0
    0.5561    1.3249    0.0000 C   0  0  0  0  0  0  0  0  0  0  0  0
    0.5561   -0.1751    0.0000 C   0  0  0  0  0  0  0  0  0  0  0  0
   -0.7431   -0.9251    0.0000 C   0  0  0  0  0  0  0  0  0  0  0  0
    1.8549   -0.9251    0.0000 C   0  0  0  0  0  0  0  0  0  0  0  0
  1  2  1  0  0  0  0
  2  3  1  0  0  0  0
  3  4  1  0  0  0  0
  3  6  1  0  0  0  0
  4  5  1  0  0  0  0
  6  7  2  0  0  0  0
  6  8  1  0  0  0  0
  9  8  2  0  0  0  0
  8 14  1  0  0  0  0
 10  9  1  0  0  0  0
 11 10  2  0  0  0  0
 12 11  1  0  0  0  0
 12 13  1  0  0  0  0
 14 12  2  0  0  0  0
M  END
> <Inchi_key>
MMOXZBCLCQITDF-UHFFFAOYSA-N

> <Source>
Mulliner

> <ID>
HT0658

> <H_MFHB>
0

> <CAS>
134-62-3

> <Cholestasis>


> <Name>
diethyltoluamide

> <Class>
0

$$$$